Version 4
SHEET 1 2736 680
WIRE 32 -512 -544 -512
WIRE -544 -432 -544 -512
WIRE 32 -432 32 -512
WIRE 32 -432 -160 -432
WIRE 256 -432 32 -432
WIRE -160 -336 -160 -432
WIRE -160 -336 -240 -336
WIRE -96 -336 -160 -336
WIRE 256 -320 256 -432
WIRE 256 -320 176 -320
WIRE 288 -320 256 -320
WIRE -96 -272 -96 -336
WIRE -240 -256 -240 -336
WIRE -288 -240 -304 -240
WIRE 176 -240 176 -320
WIRE 288 -240 288 -320
WIRE 720 -240 704 -240
WIRE 864 -240 784 -240
WIRE 1728 -240 1504 -240
WIRE 2000 -240 1728 -240
WIRE 352 -224 336 -224
WIRE 1376 -224 1040 -224
WIRE -1952 -208 -2000 -208
WIRE -1856 -208 -1872 -208
WIRE -288 -192 -304 -192
WIRE -544 -176 -544 -352
WIRE 336 -176 304 -176
WIRE 864 -176 864 -240
WIRE 1040 -176 1040 -224
WIRE 1504 -144 1504 -240
WIRE 1728 -144 1728 -240
WIRE -1968 -112 -2032 -112
WIRE -1856 -112 -1888 -112
WIRE -240 -112 -240 -176
WIRE -160 -112 -240 -112
WIRE -96 -112 -96 -208
WIRE -96 -112 -160 -112
WIRE 176 -96 176 -176
WIRE 224 -96 176 -96
WIRE 288 -96 288 -160
WIRE 288 -96 224 -96
WIRE 2000 -96 2000 -240
WIRE 2672 -96 2000 -96
WIRE -544 -80 -544 -176
WIRE -160 -80 -160 -112
WIRE 704 -80 704 -240
WIRE 704 -80 -160 -80
WIRE 2672 -80 2672 -96
WIRE 864 -64 864 -96
WIRE 1040 -48 1040 -96
WIRE -160 -32 -160 -80
WIRE 1376 -32 1376 -224
WIRE 1504 -32 1504 -80
WIRE 1504 -32 1376 -32
WIRE 1728 -32 1728 -80
WIRE 1808 -32 1728 -32
WIRE 224 -16 224 -96
WIRE 224 0 224 -16
WIRE 640 0 224 0
WIRE 1504 0 1504 -32
WIRE 1728 0 1728 -32
WIRE 2672 32 2672 0
WIRE 2672 32 2000 32
WIRE -160 48 -160 -32
WIRE -160 48 -240 48
WIRE -80 48 -160 48
WIRE 224 48 224 0
WIRE 224 48 160 48
WIRE 304 48 224 48
WIRE -1920 80 -1920 64
WIRE 640 80 640 0
WIRE 864 80 864 16
WIRE 864 80 640 80
WIRE -1952 96 -2016 96
WIRE -1824 112 -1888 112
WIRE -1952 128 -2016 128
WIRE -240 128 -240 48
WIRE 304 128 304 48
WIRE 1728 128 1728 64
WIRE 1968 128 1728 128
WIRE 2000 128 2000 32
WIRE 2000 128 1968 128
WIRE -288 144 -304 144
WIRE -80 144 -80 48
WIRE 160 144 160 48
WIRE 368 144 352 144
WIRE -1920 160 -1920 144
WIRE 1504 160 1504 64
WIRE 1728 160 1728 128
WIRE 1728 160 1504 160
WIRE -288 192 -304 192
WIRE 368 192 352 192
WIRE -2176 240 -2208 240
WIRE -2016 240 -2016 128
WIRE -2016 240 -2096 240
WIRE 1040 256 1040 32
WIRE 1808 256 1808 -32
WIRE 1808 256 1040 256
WIRE -240 288 -240 208
WIRE -144 288 -240 288
WIRE -80 288 -80 208
WIRE -80 288 -144 288
WIRE 160 304 160 208
WIRE 240 304 160 304
WIRE 304 304 304 208
WIRE 304 304 240 304
WIRE -1920 352 -1920 336
WIRE -2016 368 -2016 240
WIRE -1952 368 -2016 368
WIRE -1824 384 -1888 384
WIRE -1952 400 -1984 400
WIRE -1984 416 -1984 400
WIRE -1920 464 -1920 416
WIRE -144 480 -144 288
WIRE 48 480 -144 480
WIRE 240 480 240 304
WIRE 240 480 48 480
WIRE -544 528 -544 0
WIRE -128 528 -544 528
WIRE 48 528 48 480
WIRE 48 528 -128 528
WIRE -128 576 -128 528
FLAG -304 144 Cde2
IOPIN -304 144 In
FLAG -304 192 0
FLAG -304 -240 Cde1
IOPIN -304 -240 In
FLAG -304 -192 0
FLAG -160 -32 Out1
FLAG 368 144 Cde1
IOPIN 368 144 In
FLAG 368 192 0
FLAG 352 -224 Cde2
IOPIN 352 -224 In
FLAG 336 -176 0
FLAG 224 -16 Out2
FLAG -128 576 0
FLAG -544 -176 DCIn
FLAG -2208 240 0
FLAG -2032 -112 0
FLAG -1856 -208 0
FLAG -2016 96 0
FLAG -1984 416 0
FLAG -1824 112 Cde1
IOPIN -1824 112 Out
FLAG -1824 384 Cde2
IOPIN -1824 384 Out
FLAG -2000 -208 Vc+
IOPIN -2000 -208 Out
FLAG -1856 -112 Vc-
IOPIN -1856 -112 Out
FLAG -1920 64 Vc+
IOPIN -1920 64 In
FLAG -1920 160 Vc-
IOPIN -1920 160 In
FLAG -1920 336 Vc+
IOPIN -1920 336 In
FLAG -1920 464 Vc-
IOPIN -1920 464 In
FLAG 1968 128 0
SYMBOL voltage -544 -96 R0
WINDOW 123 0 0 Left 2
WINDOW 39 24 44 Left 2
SYMATTR InstName Vin1
SYMATTR Value 5
SYMBOL sw -240 224 M180
SYMATTR InstName S1
SYMBOL sw -240 -160 M180
SYMATTR InstName S2
SYMBOL sw 304 224 R180
SYMATTR InstName S3
SYMBOL sw 288 -144 R180
SYMATTR InstName S4
SYMBOL schottky -80 -208 R180
WINDOW 0 24 64 Left 2
WINDOW 3 24 0 Left 2
SYMATTR InstName D1
SYMATTR Value 1N5819
SYMATTR Description Diode
SYMATTR Type diode
SYMBOL schottky -64 208 R180
WINDOW 0 24 64 Left 2
WINDOW 3 24 0 Left 2
SYMATTR InstName D2
SYMATTR Value 1N5819
SYMATTR Description Diode
SYMATTR Type diode
SYMBOL schottky 176 208 R180
WINDOW 0 24 64 Left 2
WINDOW 3 24 0 Left 2
SYMATTR InstName D3
SYMATTR Value 1N5819
SYMATTR Description Diode
SYMATTR Type diode
SYMBOL schottky 192 -176 R180
WINDOW 0 24 64 Left 2
WINDOW 3 24 0 Left 2
SYMATTR InstName D4
SYMATTR Value 1N5819
SYMATTR Description Diode
SYMATTR Type diode
SYMBOL res -560 -448 R0
SYMATTR InstName Rg1
SYMATTR Value {Rg}
SYMBOL voltage -2080 240 R90
WINDOW 123 0 0 Left 2
WINDOW 39 0 0 Left 2
WINDOW 0 -50 86 VLeft 2
WINDOW 3 47 4 VRight 2
SYMATTR InstName VCommande1
SYMATTR Value PULSE(-5 5 0 100n 100n {alpha/F} {1/F})
SYMBOL voltage -1968 -208 R270
WINDOW 123 0 0 Left 2
WINDOW 39 0 0 Left 2
WINDOW 0 53 -45 VRight 2
WINDOW 3 24 96 VRight 2
SYMATTR InstName Vcompar1
SYMATTR Value 5
SYMBOL comp_tension -1920 112 R0
SYMATTR InstName U1
SYMATTR SpiceLine Tdelay=100n
SYMBOL voltage -1984 -112 R270
WINDOW 123 0 0 Left 2
WINDOW 39 0 0 Left 2
WINDOW 0 46 -30 VRight 2
WINDOW 3 21 93 VRight 2
SYMATTR InstName Vcompar2
SYMATTR Value 5
SYMBOL comp_tension -1920 384 R0
SYMATTR InstName U2
SYMATTR SpiceLine Tdelay=100n
SYMBOL ind2 848 -80 R0
WINDOW 3 29 98 Left 2
SYMATTR Value 24µ
SYMATTR InstName L1
SYMATTR Type ind
SYMBOL res 880 -80 R180
WINDOW 0 36 76 Left 2
WINDOW 3 36 40 Left 2
SYMATTR InstName R1
SYMATTR Value 72m
SYMBOL cap 720 -224 R270
WINDOW 0 32 32 VTop 2
WINDOW 3 0 32 VBottom 2
SYMATTR InstName C1
SYMATTR Value 105.6n
SYMBOL ind2 1024 -64 R0
SYMATTR InstName L2
SYMATTR Value 24µ
SYMATTR Type ind
SYMBOL res 1056 -80 R180
WINDOW 0 36 76 Left 2
WINDOW 3 36 40 Left 2
SYMATTR InstName R2
SYMATTR Value 72m
SYMBOL diode 1520 -80 R180
WINDOW 0 24 64 Left 2
WINDOW 3 24 0 Left 2
SYMATTR InstName D5
SYMATTR Value MaDiodeReelle
SYMBOL diode 1744 -80 R180
WINDOW 0 24 64 Left 2
WINDOW 3 24 0 Left 2
SYMATTR InstName D6
SYMATTR Value MaDiodeReelle
SYMBOL diode 1520 64 R180
WINDOW 0 24 64 Left 2
WINDOW 3 24 0 Left 2
SYMATTR InstName D7
SYMATTR Value MaDiodeReelle
SYMBOL diode 1744 64 R180
WINDOW 0 24 64 Left 2
WINDOW 3 24 0 Left 2
SYMATTR InstName D8
SYMATTR Value MaDiodeReelle
SYMBOL res 2656 -96 R0
WINDOW 3 34 72 Left 2
SYMATTR Value 100
SYMATTR InstName R3
TEXT -1416 -264 Left 3 ;Parametres de simulation
TEXT -1400 112 Left 2 !.tran 0 1m 0
TEXT -1392 -160 Left 2 !.model SW SW(Ron=10m Roff=10000Meg Vt=2.5)
TEXT -1424 56 Left 2 ;- -Temps de simulation :\n     ti=0; tf=10ms, pas max =1us
TEXT -1424 -216 Left 2 ;- - Paramètres pour  interrupteur = MOSFET : \n     resistance si fermé (Ron), résistance si ouvert (Roff)
TEXT -1400 304 Left 2 !.PARAM Rload =100
TEXT -1408 224 Left 2 !.param Rg=100m
TEXT -1400 264 Left 2 ;Charge électrique
TEXT -1408 192 Left 2 ;Resistance pour limiter le courant
TEXT -2104 -360 Left 2 ;Generateur de signaux PWM
TEXT -2168 -296 Left 2 ;Source de tension pour les comparateurs
TEXT -2176 -24 Left 2 ;Generation commandes interrupteurs
TEXT -1384 -64 Left 2 !.inc SP.lib
TEXT -1400 24 Left 2 !.param alpha=0.5 F=100k
TEXT -1424 -32 Left 2 ;- - Paramètres pour Vcommade : \n     Rapport cyclique 50%, Freq=100k
TEXT -1416 -120 Left 2 ;- - Inclure librairie SP.lib\n     pour les comparateurs
TEXT 912 -288 Left 2 !k L1 L2 0.8
TEXT 1632 -352 Left 2 !.model MaDiodeReelle D(Is=1e-8 BV=45 Cjo=100p Rs=0.01)
TEXT -1384 -328 Left 2 !.inc LM78xx.txt
TEXT -1400 -368 Left 2 ;Inclure librairie LM78xx
